/*--------------------------------*- C++ -*----------------------------------*\
| =========                 |                                                 |
| \\      /  F ield         | OpenFOAM: The Open Source CFD Toolbox           |
|  \\    /   O peration     | Version:  3.0.x                                 |
|   \\  /    A nd           | Web:      www.OpenFOAM.org                      |
|    \\/     M anipulation  |                                                 |
\*---------------------------------------------------------------------------*/
FoamFile
{
    version     2.0;
    format      ascii;
    class       dictionary;
    object      controlDict;
}
// * * * * * * * * * * * * * * * * * * * * * * * * * * * * * * * * * * * * * //

application     pimpleFoam;

startFrom       startTime;

startTime       0;

stopAt          endTime;

endTime        5; // Was 5000

deltaT          1;

writeControl    adjustableRunTime;
//writeControl    timeStep;

writeInterval   1;

purgeWrite      0;

writeFormat     binary;

writePrecision  12;

writeCompression uncompressed;

timeFormat      general;

timePrecision   6;

runTimeModifiable true;

adjustTimeStep  true;

maxCo           0.9;

libs
(
    "libturbinesFoam.so"
);
functions
{

    residuals
    {
        type            residuals;
        libs            ( "libutilityFunctionObjects.so" );
        fields          ( U p k omega );
    }
}
// ************************************************************************* //
